 %NPROC=12
%MEM=500MB
#P M06 6-311G** FREQ 
# GFINPUT IOP(6/7=3)  POP=FULL

RC, from TS  reverse 9

0 2
7                   -0.102009   -0.056523    0.096817
7                   -0.238877   -0.026690    1.218010
7                    0.280619   -0.022536   -1.075615
1                   -0.505180   -0.022396   -1.724419
1                    1.342562    1.491725   -1.599285



