! RKS BP def2-TZVP RI def2/J
! TightSCF Grid5 NoFinalGrid
! Freq 
* xyz 0 2
C     -0.264044    0.000000    0.000000
H     -0.519209   -0.411764    0.966816
H     -0.519208   -0.631408   -0.840004
H     -0.519221    1.043166   -0.126811
H      1.132971    0.000008    0.000001
H      2.008933    0.000000   -0.000001
*
