 %NPROC=12
%MEM=500MB
#P M06 6-311G** IRC=(forward, calcfc, stepsize=20, maxcyc=10)      
# GFINPUT IOP(6/7=3)  POP=FULL

forward IRC, from TS

0 2
7                  0.067338   -0.045098    0.009907
7                  -0.057433   -0.001827    1.135520
7                   0.466490    0.011841   -1.163339
1                  -0.310525    0.002434   -1.821497
1                   1.418288    1.362722   -1.628428

