 %NPROC=12
%MEM=500MB
#P M06 6-311G** FREQ 
# GFINPUT IOP(6/7=3)  POP=FULL

RC, from TS  1reverse 

0 2
7                   -0.108674   -0.064217    0.094813
7                   -0.234798   -0.022453    1.219802
7                    0.288529   -0.009846   -1.078148
1                   -0.489145   -0.018119   -1.735664
1                    1.252546    1.359133   -1.549886



