 %NPROC=12
%MEM=500MB
#P M06 6-311G** FREQ 
# GFINPUT IOP(6/7=3)  POP=FULL

reverse IRC, from TS reverse1 freq

0 2
 7                   -0.181110   -0.119792    0.086816
 7                   -0.198181    0.007197    1.249448
 7                    0.339666    0.054508   -1.113477
 1                   -0.401733   -0.051310   -1.793065
 1                    0.953506    0.857351   -1.301794

