%NPROC=1
%MEM=500MB
#P HF 6-31G* OPT FREQ
# GFINPUT IOP(6/7=3)  

equilibrium 

0 1
n
 h   1 hn2     
 h   1 hn3        2 hnh3      
 h   1 hn4        2 hnh4         3 dih4   
 
hn2         1.008000
hn3         1.008000
hnh3        109.471
hn4         1.008000
hnh4        109.471
dih4        300.000
 
 
