%NPROC=12
%MEM=500MB
#P M06 6-311G** OPT FREQ 
# GFINPUT IOP(6/7=3)  POP=FULL

reactant 1

0 1
7                   0.125821   -0.000000   -0.005290
7                  -0.076376   -0.000000    1.074716
7                   0.483249    0.000000   -1.190418
1                  -0.340844   -0.000000   -1.766753


