 %NPROC=12
%MEM=500MB
#P M06 6-311G** FREQ 
# GFINPUT IOP(6/7=3)  POP=FULL

reverse IRC, from TS reverse1 freq1

0 2
 7                   -0.113727   -0.069829    0.093311
 7                   -0.232122   -0.019447    1.222548
 7                    0.294980   -0.000227   -1.081527
 1                   -0.478958   -0.016086   -1.742048
 1                    1.185711    1.259635   -1.513837

