 %NPROC=12
%MEM=500MB
#P M06 6-311G** FREQ 
# GFINPUT IOP(6/7=3)  POP=FULL

reverse IRC, from TS reverse1 freq

0 2
 7                   -0.127496   -0.082947    0.089356
 7                   -0.225660   -0.012473    1.232787
 7                    0.312477    0.023806   -1.093666
 1                   -0.458146   -0.018813   -1.753559
 1                    1.023098    1.013424   -1.420852

