6
Frame 15: Geometry 68, Energy: -1.01076 Ha
C 0.03086043677416784 -0.0623785637917487 0.02087979503480884
H -0.008502347375883594 0.01800576487021248 1.101783686888444
H 1.016338190237416 0.01772958945101425 -0.4250800590250871
H -0.6339458871935355 -0.7935280082636741 -0.4259813603951523
H -0.6072887810204869 1.234734686556652 -0.4078516673124485
H -0.9594693593778761 1.948957050665469 -0.6453420278643709
